*Heading
** Job name: Trust Model name: Model-1
** Generated by: Abaqus/CAE 6.14-1
*Preprint, echo=NO, model=NO, history=NO, contact=NO
**
** PARTS
**
*Part, name=Part-1
*Node
      1, 0.0487463959,  0.011126047,           0.
      2, 0.0450484417, 0.0216941871,           0.
      3, 0.0311744902, 0.0390915759,           0.
      4, 0.0216941871, 0.0450484417,           0.
      5,  0.011126047, 0.0487463959,           0.
      6,           0., 0.0500000007,           0.
      7, -0.0216941871, 0.0450484417,           0.
      8, -0.0311744902, 0.0390915759,           0.
      9, -0.0390915759, 0.0311744902,           0.
     10, -0.0450484417, 0.0216941871,           0.
     11, -0.0487463959,  0.011126047,           0.
     12, -0.0487463959, -0.011126047,           0.
     13, -0.0450484417, -0.0216941871,           0.
     14, -0.0390915759, -0.0311744902,           0.
     15, -0.0311744902, -0.0390915759,           0.
     16, -0.0216941871, -0.0450484417,           0.
     17,           0., -0.0500000007,           0.
     18,  0.011126047, -0.0487463959,           0.
     19, 0.0216941871, -0.0450484417,           0.
     20, 0.0311744902, -0.0390915759,           0.
** ... 1652 like lines cut
*Element, type=C3D6
   1,  118,  106,  105,   30,   18,   17
   2,  118,  105,  115,   30,   17,   27
   3,  117,  107,  106,   29,   19,   18
   4,  118,  117,  106,   30,   29,   18
   5,  161,  148,  117,   73,   60,   29
   6,  119,  107,  117,   31,   19,   29
   7,  147,  122,  123,   59,   34,   35
   8,  121,  109,  116,   33,   21,   28
   9,  176,  163,  172,   88,   75,   84
  10,  126,  125,  100,   38,   37,   12
  11,  151,  128,  143,   63,   40,   55
  12,  129,   97,   96,   41,    9,    8
  13,  128,  127,   98,   40,   39,   10
  14,  133,   92,   91,   45,    4,    3
  15,  146,  132,  133,   58,   44,   45
  16,  146,  133,  134,   58,   45,   46
  17,  164,  132,  146,   76,   44,   58
  18,  175,  169,  131,   87,   81,   43
  19,  143,  128,  129,   55,   40,   41
  20,  136,  135,   89,   48,   47,    1
** ... 2608 like lines cut
*Nset, nset=_PickedSet2, internal, generate
    1,  1672,     1
*Elset, elset=_PickedSet2, internal, generate
    1,  2628,     1
** Section: Soil
*Solid Section, elset=_PickedSet2, material=Soil
,
*End Part
**  
**
** ASSEMBLY
**
*Assembly, name=Assembly
**  
*Instance, name=Part-1-1, part=Part-1
*End Instance
**  
*Node
      1,           0.,           0.,         0.25
*Nset, nset=Set-13, instance=Part-1-1, generate
  1,  88,   1
*Elset, elset=Set-13, instance=Part-1-1, generate
   1,  146,    1
*Nset, nset=Set-14, instance=Part-1-1, generate
    1,  1672,     1
*Elset, elset=Set-14, instance=Part-1-1, generate
    1,  2628,     1
*Nset, nset=Set-15, instance=Part-1-1, generate
    1,  1672,     1
*Nset, nset=Set-15
 1,
*Elset, elset=Set-15, instance=Part-1-1, generate
    1,  2628,     1
*Nset, nset=_PickedSet6, internal
 1,
*Nset, nset=_PickedSet10, internal
 1,
*Nset, nset=_PickedSet14, internal
 1,
*Nset, nset=_PickedSet15, internal
 1,
*Nset, nset=_PickedSet16, internal
 1,
*Nset, nset=_PickedSet17, internal
 1,
*Nset, nset=_PickedSet19, internal
 1,
*Nset, nset=_PickedSet20, internal
 1,
*Elset, elset=_Surf-3_S4, internal, instance=Part-1-1
    1,    2,    3,    8,   12,   14,   21,   26,   29,   30,   33,   38,   39,   44,   45,   47
   49,   51,   53,   56,   57,   59,   61,   63,   67,   72,   76,   77,  147,  148,  149,  154
  158,  160,  167,  172,  175,  176,  179,  184,  185,  190,  191,  193,  195,  197,  199,  202
  203,  205,  207,  209,  213,  218,  222,  223,  293,  294,  295,  300,  304,  306,  313,  318
  321,  322,  325,  330,  331,  336,  337,  339,  341,  343,  345,  348,  349,  351,  353,  355
  359,  364,  368,  369,  439,  440,  441,  446,  450,  452,  459,  464,  467,  468,  471,  476
  477,  482,  483,  485,  487,  489,  491,  494,  495,  497,  499,  501,  505,  510,  514,  515
  585,  586,  587,  592,  596,  598,  605,  610,  613,  614,  617,  622,  623,  628,  629,  631
  633,  635,  637,  640,  641,  643,  645,  647,  651,  656,  660,  661,  731,  732,  733,  738
  742,  744,  751,  756,  759,  760,  763,  768,  769,  774,  775,  777,  779,  781,  783,  786
  787,  789,  791,  793,  797,  802,  806,  807,  877,  878,  879,  884,  888,  890,  897,  902
  905,  906,  909,  914,  915,  920,  921,  923,  925,  927,  929,  932,  933,  935,  937,  939
  943,  948,  952,  953, 1023, 1024, 1025, 1030, 1034, 1036, 1043, 1048, 1051, 1052, 1055, 1060
 1061, 1066, 1067, 1069, 1071, 1073, 1075, 1078, 1079, 1081, 1083, 1085, 1089, 1094, 1098, 1099
 1169, 1170, 1171, 1176, 1180, 1182, 1189, 1194, 1197, 1198, 1201, 1206, 1207, 1212, 1213, 1215
 1217, 1219, 1221, 1224, 1225, 1227, 1229, 1231, 1235, 1240, 1244, 1245, 1315, 1316, 1317, 1322
 1326, 1328, 1335, 1340, 1343, 1344, 1347, 1352, 1353, 1358, 1359, 1361, 1363, 1365, 1367, 1370
 1371, 1373, 1375, 1377, 1381, 1386, 1390, 1391, 1461, 1462, 1463, 1468, 1472, 1474, 1481, 1486
 1489, 1490, 1493, 1498, 1499, 1504, 1505, 1507, 1509, 1511, 1513, 1516, 1517, 1519, 1521, 1523
 1527, 1532, 1536, 1537, 1607, 1608, 1609, 1614, 1618, 1620, 1627, 1632, 1635, 1636, 1639, 1644
** ... 12 like lines cut
*Elset, elset=_Surf-3_S1, internal, instance=Part-1-1, generate
 2483,  2628,     1
*Elset, elset=_Surf-3_S2, internal, instance=Part-1-1, generate
   1,  146,    1
*Surface, type=ELEMENT, name=Surf-3
_Surf-3_S4, S4
_Surf-3_S1, S1
_Surf-3_S2, S2
*Elset, elset=_s_Surf-3_S1, internal, instance=Part-1-1, generate
 2483,  2628,     1
*Surface, type=ELEMENT, name=s_Surf-3
_s_Surf-3_S1, S1
** Constraint: Constraint-1
*Coupling, constraint name=Constraint-1, ref node=_PickedSet6, surface=s_Surf-3
*Kinematic
*End Assembly
*Amplitude, name=Amp-1
             0.,              0.,              1.,              1.
*Amplitude, name=Amp-2
             0.,              1.,              2.,             -1.
*Amplitude, name=Amp-3
             0.,             -1.,              3.,              2.
*Amplitude, name=Amp-4
             0.,              2.,              4.,             -2.
*Amplitude, name=Amp-5
             0.,             -2.,              5.,              3.
*Amplitude, name=Amp-6
             0.,              3.,              6.,             -3.
*Amplitude, name=Amp-7
             0.,             -3.,              7.,              4.
*Amplitude, name=Amp-8
             0.,              4.,              8.,             -4.
*Amplitude, name=Amp-9
             0.,             -4.,              9.,              5.
*Amplitude, name=Amp-10
             0.,              5.,             10.,             -5.
*Amplitude, name=Amp-11
             0.,             -5.,             11.,              6.
*Amplitude, name=Amp-12
             0.,              6.,             12.,             -6.
*Amplitude, name=Amp-13
             0.,             -6.,             13.,              7.
*Amplitude, name=Amp-14
             0.,              7.,             14.,             -7.
*Amplitude, name=Amp-15
             0.,             -7.,             15.,              8.
*Amplitude, name=Amp20
             0.,              0.,            0.05,             0.1,             0.1,            0.05,            0.15,            0.15
            0.2,             0.1,            0.25,             0.2,             0.3,            0.15,            0.35,            0.25
            0.4,             0.2,            0.45,             0.3,             0.5,            0.25,            0.55,            0.35
            0.6,             0.3,            0.65,             0.4,             0.7,            0.35,            0.75,            0.45
            0.8,             0.4,            0.85,             0.5,             0.9,            0.45,            0.95,            0.55
             1.,             0.5
*Amplitude, name=Amp40
             0.,              0.,           0.025,             0.1,            0.05,            0.05,           0.075,            0.15
            0.1,             0.1,           0.125,             0.2,            0.15,            0.15,           0.175,            0.25
            0.2,             0.2,           0.225,             0.3,            0.25,            0.25,           0.275,            0.35
            0.3,             0.3,           0.325,             0.4,            0.35,            0.35,           0.375,            0.45
            0.4,             0.4,           0.425,             0.5,            0.45,            0.45,           0.475,            0.55
            0.5,             0.5,           0.525,             0.6,            0.55,            0.55,           0.575,            0.65
            0.6,             0.6,           0.625,             0.7,            0.65,            0.65,           0.675,            0.75
            0.7,             0.7,           0.725,             0.8,            0.75,            0.75,           0.775,            0.85
            0.8,             0.8,           0.825,             0.9,            0.85,            0.85,           0.875,            0.95
            0.9,             0.9,           0.925,              1.,            0.95,            0.95,           0.975,            1.05
             1.,              1.
*Amplitude, name=Amp50
             0.,              0.,            0.02,            0.04,            0.04,            0.02,            0.06,            0.06
           0.08,            0.04,             0.1,            0.08,            0.12,            0.06,            0.14,             0.1
           0.16,            0.08,            0.18,            0.12,             0.2,             0.1,            0.22,            0.14
           0.24,            0.12,            0.26,            0.16,            0.28,            0.14,             0.3,            0.18
           0.32,            0.16,            0.34,             0.2,            0.36,            0.18,            0.38,            0.22
            0.4,             0.2,            0.42,            0.24,            0.44,            0.22,            0.46,            0.26
           0.48,            0.24,             0.5,            0.28,            0.52,            0.26,            0.54,             0.3
           0.56,            0.28,            0.58,            0.32,             0.6,             0.3,            0.62,            0.34
           0.64,            0.32,            0.66,            0.36,            0.68,            0.34,             0.7,            0.38
           0.72,            0.36,            0.74,             0.4,            0.76,            0.38,            0.78,            0.42
            0.8,             0.4,            0.82,            0.44,            0.84,            0.42,            0.86,            0.46
           0.88,            0.44,             0.9,            0.48,            0.92,            0.46,            0.94,             0.5
           0.96,            0.48,            0.98,            0.52,              1.,             0.5
*Amplitude, name=Amp200
             0.,              0.,           0.005,           0.005,            0.01,            0.01,           0.015,           0.005
           0.02,           0.015,           0.025,            0.01,            0.03,            0.02,           0.035,           0.015
           0.04,           0.025,           0.045,            0.02,            0.05,            0.03,           0.055,           0.025
           0.06,           0.035,           0.065,            0.03,            0.07,            0.04,           0.075,           0.035
           0.08,           0.045,           0.085,            0.04,            0.09,            0.05,           0.095,           0.045
            0.1,           0.055,           0.105,            0.05,            0.11,            0.06,           0.115,           0.055
           0.12,           0.065,           0.125,            0.06,            0.13,            0.07,           0.135,           0.065
           0.14,           0.075,           0.145,            0.07,            0.15,            0.08,           0.155,           0.075
           0.16,           0.085,           0.165,            0.08,            0.17,            0.09,           0.175,           0.085
           0.18,           0.095,           0.185,            0.09,            0.19,             0.1,           0.195,           0.095
            0.2,           0.105,           0.205,             0.1,            0.21,            0.11,           0.215,           0.105
           0.22,           0.115,           0.225,            0.11,            0.23,            0.12,           0.235,           0.115
           0.24,           0.125,           0.245,            0.12,            0.25,            0.13,           0.255,           0.125
           0.26,           0.135,           0.265,            0.13,            0.27,            0.14,           0.275,           0.135
           0.28,           0.145,           0.285,            0.14,            0.29,            0.15,           0.295,           0.145
            0.3,           0.155,           0.305,            0.15,            0.31,            0.16,           0.315,           0.155
           0.32,           0.165,           0.325,            0.16,            0.33,            0.17,           0.335,           0.165
           0.34,           0.175,           0.345,            0.17,            0.35,            0.18,           0.355,           0.175
           0.36,           0.185,           0.365,            0.18,            0.37,            0.19,           0.375,           0.185
           0.38,           0.195,           0.385,            0.19,            0.39,             0.2,           0.395,           0.195
** ... 31 like lines cut
** 
** MATERIALS
** 
*Material, name=Cam
*Clay Plasticity
 0.15,  1.,100.,  1.,  1.
*Porous Elastic
 0.05, 0.3,  0.
*Material, name=Soil
*Depvar
      8,
*User Material, constants=5, unsymm
 0.15, 0.05,   1.,  0.3,  0.5
*Material, name=UH
*Density
2000.,
*Depvar
     14,
*User Material, constants=8, unsymm
1.,    0.3,   0.15,   0.05,  1.973, 1.3513,    0.3,    60.
** 
** BOUNDARY CONDITIONS
** 
** Name: Bottom_BC Type: Displacement/Rotation
*Boundary
Set-13, 1, 1
Set-13, 2, 2
Set-13, 3, 3
Set-13, 4, 4
Set-13, 5, 5
Set-13, 6, 6
** 
** PREDEFINED FIELDS
** 
** Name: Initial void ratio   Type: Void ratio
*Initial Conditions, TYPE=RATIO
Set-15, 0.5
** Name: Stress   Type: Stress
*Initial Conditions, type=STRESS
Set-14, -200., -200., -200., 0., 0., 0.
** ----------------------------------------------------------------
** 
** STEP: Geostatic
** 
*Step, name=Geostatic, nlgeom=NO
*Geostatic
** 
** LOADS
** 
** Name: Load-1   Type: Pressure
*Dsload
Surf-3, P, 200.
** 
** OUTPUT REQUESTS
** 
*Restart, write, frequency=0
** 
** FIELD OUTPUT: F-Output-1
** 
*Output, field
*Node Output
CF, POR, RF, U
*Element Output, directions=YES
E, LE, PEEQ, S, SAT, SDV, VOIDR
*Contact Output
CDISP, CSTRESS
** 
** HISTORY OUTPUT: H-Output-1
** 
*Output, history, variable=PRESELECT
*End Step
** ----------------------------------------------------------------
** 
** STEP: load1
** 
*Step, name=load1, nlgeom=NO, inc=10000
*Static
0.1, 1., 1e-08, 1.
** 
** BOUNDARY CONDITIONS
** 
** Name: Top_load Type: Displacement/Rotation
*Boundary, amplitude=Amp-1
_PickedSet10, 1, 1, 0.02
_PickedSet10, 2, 2
_PickedSet10, 3, 3
_PickedSet10, 4, 4
_PickedSet10, 5, 5
_PickedSet10, 6, 6
** 
** OUTPUT REQUESTS
** 
*Restart, write, frequency=0
** 
** FIELD OUTPUT: F-Output-1
** 
*Output, field
*Node Output
CF, RF, U
*Element Output, directions=YES
E, LE, PEEQ, S, SDV
*Contact Output
CDISP, CSTRESS
** 
** HISTORY OUTPUT: H-Output-1
** 
*Output, history, variable=PRESELECT
*End Step
** ----------------------------------------------------------------
** 
** STEP: load2
** 
*Step, name=load2, nlgeom=NO, inc=10000
*Static
0.1, 2., 1e-08, 2.
** 
** BOUNDARY CONDITIONS
** 
** Name: Bottom_BC Type: Displacement/Rotation
*Boundary, op=NEW
Set-13, 1, 1
Set-13, 2, 2
Set-13, 3, 3
Set-13, 4, 4
Set-13, 5, 5
Set-13, 6, 6
** Name: Top_load Type: Displacement/Rotation
*Boundary, op=NEW
** Name: load2 Type: Displacement/Rotation
*Boundary, op=NEW, amplitude=Amp-2
_PickedSet14, 1, 1, 0.02
_PickedSet14, 2, 2
_PickedSet14, 3, 3
_PickedSet14, 4, 4
_PickedSet14, 5, 5
_PickedSet14, 6, 6
** 
** OUTPUT REQUESTS
** 
*Restart, write, frequency=0
** 
** FIELD OUTPUT: F-Output-1
** 
*Output, field
*Node Output
CF, RF, U
*Element Output, directions=YES
E, LE, PEEQ, S, SDV
*Contact Output
CDISP, CSTRESS
** 
** HISTORY OUTPUT: H-Output-1
** 
*Output, history, variable=PRESELECT
*End Step
** ----------------------------------------------------------------
** 
** STEP: load3
** 
*Step, name=load3, nlgeom=NO, inc=10000
*Static
0.1, 3., 1e-08, 3.
** 
** BOUNDARY CONDITIONS
** 
** Name: Bottom_BC Type: Displacement/Rotation
*Boundary, op=NEW
Set-13, 1, 1
Set-13, 2, 2
Set-13, 3, 3
Set-13, 4, 4
Set-13, 5, 5
Set-13, 6, 6
** Name: load2 Type: Displacement/Rotation
*Boundary, op=NEW
** Name: load3 Type: Displacement/Rotation
*Boundary, op=NEW, amplitude=Amp-3
_PickedSet15, 1, 1, 0.02
_PickedSet15, 2, 2
_PickedSet15, 3, 3
_PickedSet15, 4, 4
_PickedSet15, 5, 5
_PickedSet15, 6, 6
** 
** OUTPUT REQUESTS
** 
*Restart, write, frequency=0
** 
** FIELD OUTPUT: F-Output-1
** 
*Output, field
*Node Output
CF, RF, U
*Element Output, directions=YES
E, LE, PEEQ, S, SDV
*Contact Output
CDISP, CSTRESS
** 
** HISTORY OUTPUT: H-Output-1
** 
*Output, history, variable=PRESELECT
*End Step
** ----------------------------------------------------------------
** 
** STEP: load4
** 
*Step, name=load4, nlgeom=NO, inc=10000
*Static
0.1, 4., 1e-08, 4.
** 
** BOUNDARY CONDITIONS
** 
** Name: Bottom_BC Type: Displacement/Rotation
*Boundary, op=NEW
Set-13, 1, 1
Set-13, 2, 2
Set-13, 3, 3
Set-13, 4, 4
Set-13, 5, 5
Set-13, 6, 6
** Name: load3 Type: Displacement/Rotation
*Boundary, op=NEW
** Name: load4 Type: Displacement/Rotation
*Boundary, op=NEW, amplitude=Amp-4
_PickedSet16, 1, 1, 0.02
_PickedSet16, 2, 2
_PickedSet16, 3, 3
_PickedSet16, 4, 4
_PickedSet16, 5, 5
_PickedSet16, 6, 6
** 
** OUTPUT REQUESTS
** 
*Restart, write, frequency=0
** 
** FIELD OUTPUT: F-Output-1
** 
*Output, field
*Node Output
CF, RF, U
*Element Output, directions=YES
E, LE, PEEQ, S, SDV
*Contact Output
CDISP, CSTRESS
** 
** HISTORY OUTPUT: H-Output-1
** 
*Output, history, variable=PRESELECT
*End Step
** ----------------------------------------------------------------
** 
** STEP: load5
** 
*Step, name=load5, nlgeom=NO, inc=10000
*Static
0.1, 5., 1e-08, 5.
** 
** BOUNDARY CONDITIONS
** 
** Name: Bottom_BC Type: Displacement/Rotation
*Boundary, op=NEW
Set-13, 1, 1
Set-13, 2, 2
Set-13, 3, 3
Set-13, 4, 4
Set-13, 5, 5
Set-13, 6, 6
** Name: load4 Type: Displacement/Rotation
*Boundary, op=NEW
** Name: load5 Type: Displacement/Rotation
*Boundary, op=NEW, amplitude=Amp-5
_PickedSet17, 1, 1, 0.02
_PickedSet17, 2, 2
_PickedSet17, 3, 3
_PickedSet17, 4, 4
_PickedSet17, 5, 5
_PickedSet17, 6, 6
** 
** OUTPUT REQUESTS
** 
*Restart, write, frequency=0
** 
** FIELD OUTPUT: F-Output-1
** 
*Output, field
*Node Output
CF, RF, U
*Element Output, directions=YES
E, LE, PEEQ, S, SDV
*Contact Output
CDISP, CSTRESS
** 
** HISTORY OUTPUT: H-Output-1
** 
*Output, history, variable=PRESELECT
*End Step
** ----------------------------------------------------------------
** 
** STEP: load6
** 
*Step, name=load6, nlgeom=NO, inc=10000
*Static
0.1, 6., 1e-08, 6.
** 
** BOUNDARY CONDITIONS
** 
** Name: Bottom_BC Type: Displacement/Rotation
*Boundary, op=NEW
Set-13, 1, 1
Set-13, 2, 2
Set-13, 3, 3
Set-13, 4, 4
Set-13, 5, 5
Set-13, 6, 6
** Name: load5 Type: Displacement/Rotation
*Boundary, op=NEW
** Name: load6 Type: Displacement/Rotation
*Boundary, op=NEW, amplitude=Amp-6
_PickedSet19, 1, 1, 0.02
_PickedSet19, 2, 2
_PickedSet19, 3, 3
_PickedSet19, 4, 4
_PickedSet19, 5, 5
_PickedSet19, 6, 6
** 
** OUTPUT REQUESTS
** 
*Restart, write, frequency=0
** 
** FIELD OUTPUT: F-Output-1
** 
*Output, field
*Node Output
CF, RF, U
*Element Output, directions=YES
E, LE, PEEQ, S, SDV
*Contact Output
CDISP, CSTRESS
** 
** HISTORY OUTPUT: H-Output-1
** 
*Output, history, variable=PRESELECT
*End Step
** ----------------------------------------------------------------
** 
** STEP: load7
** 
*Step, name=load7, nlgeom=NO, inc=10000
*Static
0.1, 7., 1e-08, 7.
** 
** BOUNDARY CONDITIONS
** 
** Name: Bottom_BC Type: Displacement/Rotation
*Boundary, op=NEW
Set-13, 1, 1
Set-13, 2, 2
Set-13, 3, 3
Set-13, 4, 4
Set-13, 5, 5
Set-13, 6, 6
** Name: load6 Type: Displacement/Rotation
*Boundary, op=NEW
** Name: load7 Type: Displacement/Rotation
*Boundary, op=NEW, amplitude=Amp-7
_PickedSet20, 1, 1, 0.02
_PickedSet20, 2, 2
_PickedSet20, 3, 3
_PickedSet20, 4, 4
_PickedSet20, 5, 5
_PickedSet20, 6, 6
** 
** OUTPUT REQUESTS
** 
*Restart, write, frequency=0
** 
** FIELD OUTPUT: F-Output-1
** 
*Output, field
*Node Output
CF, RF, U
*Element Output, directions=YES
E, LE, PEEQ, S, SDV
*Contact Output
CDISP, CSTRESS
** 
** HISTORY OUTPUT: H-Output-1
** 
*Output, history, variable=PRESELECT
*End Step
** ----------------------------------------------------------------
** 
** STEP: load8
** 
*Step, name=load8, nlgeom=NO, inc=10000
*Static
0.1, 8., 1e-08, 8.
** 
** BOUNDARY CONDITIONS
** 
** Name: Bottom_BC Type: Displacement/Rotation
*Boundary, op=NEW
Set-13, 1, 1
Set-13, 2, 2
Set-13, 3, 3
Set-13, 4, 4
Set-13, 5, 5
Set-13, 6, 6
** Name: load7 Type: Displacement/Rotation
*Boundary, op=NEW
** Name: load8 Type: Displacement/Rotation
*Boundary, op=NEW, amplitude=Amp-8
_PickedSet20, 1, 1, 0.02
_PickedSet20, 2, 2
_PickedSet20, 3, 3
_PickedSet20, 4, 4
_PickedSet20, 5, 5
_PickedSet20, 6, 6
** 
** OUTPUT REQUESTS
** 
*Restart, write, frequency=0
** 
** FIELD OUTPUT: F-Output-1
** 
*Output, field
*Node Output
CF, RF, U
*Element Output, directions=YES
E, LE, PEEQ, S, SDV
*Contact Output
CDISP, CSTRESS
** 
** HISTORY OUTPUT: H-Output-1
** 
*Output, history, variable=PRESELECT
*End Step
** ----------------------------------------------------------------
** 
** STEP: load9
** 
*Step, name=load9, nlgeom=NO, inc=10000
*Static
0.1, 9., 1e-08, 9.
** 
** BOUNDARY CONDITIONS
** 
** Name: Bottom_BC Type: Displacement/Rotation
*Boundary, op=NEW
Set-13, 1, 1
Set-13, 2, 2
Set-13, 3, 3
Set-13, 4, 4
Set-13, 5, 5
Set-13, 6, 6
** Name: load8 Type: Displacement/Rotation
*Boundary, op=NEW
** Name: load9 Type: Displacement/Rotation
*Boundary, op=NEW, amplitude=Amp-9
_PickedSet20, 1, 1, 0.02
_PickedSet20, 2, 2
_PickedSet20, 3, 3
_PickedSet20, 4, 4
_PickedSet20, 5, 5
_PickedSet20, 6, 6
** 
** OUTPUT REQUESTS
** 
*Restart, write, frequency=0
** 
** FIELD OUTPUT: F-Output-1
** 
*Output, field
*Node Output
CF, RF, U
*Element Output, directions=YES
E, LE, PEEQ, S, SDV
*Contact Output
CDISP, CSTRESS
** 
** HISTORY OUTPUT: H-Output-1
** 
*Output, history, variable=PRESELECT
*End Step
** ----------------------------------------------------------------
** 
** STEP: load10
** 
*Step, name=load10, nlgeom=NO, inc=10000
*Static
0.1, 5., 1e-08, 5.
** 
** BOUNDARY CONDITIONS
** 
** Name: Bottom_BC Type: Displacement/Rotation
*Boundary, op=NEW
Set-13, 1, 1
Set-13, 2, 2
Set-13, 3, 3
Set-13, 4, 4
Set-13, 5, 5
Set-13, 6, 6
** Name: load9 Type: Displacement/Rotation
*Boundary, op=NEW
** Name: load10 Type: Displacement/Rotation
*Boundary, op=NEW, amplitude=Amp-10
_PickedSet20, 1, 1, 0.02
_PickedSet20, 2, 2
_PickedSet20, 3, 3
_PickedSet20, 4, 4
_PickedSet20, 5, 5
_PickedSet20, 6, 6
** 
** OUTPUT REQUESTS
** 
*Restart, write, frequency=0
** 
** FIELD OUTPUT: F-Output-1
** 
*Output, field
*Node Output
CF, RF, U
*Element Output, directions=YES
E, LE, PEEQ, S, SDV
*Contact Output
CDISP, CSTRESS
** 
** HISTORY OUTPUT: H-Output-1
** 
*Output, history, variable=PRESELECT
*End Step
